/*--------------------------------*- C++ -*----------------------------------*\
  =========                 |
  \\      /  F ield         | OpenFOAM: The Open Source CFD Toolbox
   \\    /   O peration     | Website:  https://openfoam.org
    \\  /    A nd           | Version:  7
     \\/     M anipulation  |
\*---------------------------------------------------------------------------*/
FoamFile
{
    version     2.0;
    format      ascii;
    class       polyBoundaryMesh;
    location    "constant/polyMesh";
    object      boundary;
}
// * * * * * * * * * * * * * * * * * * * * * * * * * * * * * * * * * * * * * //

5
(
    lowerWall
    {
        type            wall;
        inGroups        List<word> 1(wall);
        nFaces          2;
        startFace       10;
    }
    upperWall
    {
        type            wall;
        inGroups        List<word> 1(wall);
        nFaces          2;
        startFace       12;
    }
    front
    {
        type            wall;
        inGroups        List<word> 1(wall);
        nFaces          4;
        startFace       14;
        matchTolerance  0.0001;
        transform       unknown;
        neighbourPatch  back;
    }
    back
    {
        type            wall;
        inGroups        List<word> 1(wall);
        nFaces          4;
        startFace       18;
        matchTolerance  0.0001;
        transform       unknown;
        neighbourPatch  front;
    }
    defaultFaces
    {
        type            wall;
        inGroups        List<word> 1(wall);
        nFaces          16;
        startFace       22;
    }
)

// ************************************************************************* //
